&share
 wrf_core = 'ARW',
 max_dom = 2,
 start_date = '2011-10-26_00:00:00', '2011-10-26_00:00:00',
 end_date   = '2011-10-31_23:00:00', '2011-10-31_23:00:00',
 interval_seconds = 3600,
 io_form_geogrid = 2,
 debug_level= 0,
/

&geogrid
 parent_id = 1, 1,
 parent_grid_ratio = 1, 5,
 i_parent_start = 1, 205,
 j_parent_start = 1, 90,
 e_we = 540, 616,
 e_sn = 363, 501,
 geog_data_res = 'default', 'default',
 dx = 0.176,
 dy = 0.176,
 map_proj = 'lat-lon',
 ref_lat = -24.26,
 ref_lon = 147.63,
 pole_lat = 60.31,
 pole_lon = 321.38,
 stand_lon = 32.37,
 geog_data_path = '/g/data/sx70/data/WPS_GEOG_v4',
/

&ungrib
 out_format = 'WPS',
 prefix = 'INVAR',
/

&metgrid
 constants_name = 'INV:1989-01-01_12',
 fg_name = 'INVAR',
 io_form_metgrid = 2, 
/